test/test_files/IEEE_test_cases/powerflow.raw
 0, 100.0/RAWD VER 30 EXPORT BY PSAT
                               100.0

     2,'CORONADO    ', 500.00,1,          0.000,          0.000,   1,   1,0.98199, -50.5904,  1
     3,'CHOLLA      ', 345.00,1,          0.000,          0.000,   1,   1,0.98107, -41.9116,  1
     4,'CORONADO    ',  20.00,2,          0.000,          0.000,   1,   1,1.04000, -44.1677,  1
     5,'CRAIG       ', 345.00,1,          0.000,          0.000,   1,   1,0.97092,  -4.8763,  1
     6,'CRAIG       ',  22.00,2,          0.000,          0.000,   1,   1,0.95000,   2.5094,  1
     7,'FOURCORN    ', 500.00,1,          0.000,       -113.000,   1,   1,1.06665, -33.6300,  1
     8,'FOURCORN    ', 345.00,1,          0.000,       -155.000,   1,   1,1.00876, -30.3161,  1
     9,'FCNGN4CC    ',  22.00,2,          0.000,          0.000,   1,   1,1.00000, -23.3961,  1
    10,'FOURCORN    ', 230.00,1,          0.000,          0.000,   1,   1,1.00686, -30.8674,  1
    11,'HAYDEN      ',  20.00,2,          0.000,          0.000,   1,   1,1.00000,  12.6570,  1
    12,'NAVAJO      ', 500.00,1,          0.000,       -190.000,   2,   1,1.06876, -50.2815,  1
    13,'NAVAJO 2    ',  26.00,2,          0.000,          0.000,   2,   1,1.00000, -44.1386,  1
    14,'MOENKOPI    ', 500.00,1,          0.000,       -391.000,   2,   1,1.06325, -51.1600,  1
    15,'PALOVRD2    ',  24.00,2,          0.000,          0.000,   2,   1,0.96000, -48.9807,  1
    16,'PALOVRDE    ', 500.00,1,          0.000,       -146.000,   2,   1,1.04533, -56.9546,  1
    17,'SAN JUAN    ', 345.00,1,          0.000,        390.000,   1,   1,1.03436, -29.4908,  1
    18,'SJUAN G4    ',  22.00,2,          0.000,          0.000,   1,   1,1.00000, -26.4999,  1
    19,'WESTWING    ', 500.00,1,          0.000,       -427.000,   2,   1,1.05226, -56.8061,  1
    20,'NAVAJO1     ', 500.00,1,          0.000,          0.000,   2,   1,1.06800, -49.2378,  1
    21,'NAVAJO2     ', 500.00,1,          0.000,          0.000,   2,   1,1.05526, -52.2194,  1
    22,'NAVAJO3     ', 500.00,1,          0.000,          0.000,   2,   1,1.04421, -48.1927,  1
    23,'NAVAJO4     ', 500.00,1,          0.000,          0.000,   2,   1,1.02299, -58.9549,  1
    24,'MOENKOP1    ', 500.00,1,          0.000,          0.000,   2,   1,1.05180, -49.4170,  1
    25,'MOENKOP2    ', 500.00,1,          0.000,          0.000,   2,   1,1.03862, -58.5777,  1
    26,'MOENKOP3    ', 500.00,1,          0.000,          0.000,   2,   1,1.04846, -42.2573,  1
    27,'MOENKOP4    ', 500.00,1,          0.000,          0.000,   2,   1,1.03539, -68.0509,  1
    28,'FOURCOR1    ', 500.00,1,          0.000,          0.000,   1,   1,1.06505, -31.4403,  1
    29,'FOURCOR2    ', 500.00,1,          0.000,          0.000,   1,   1,1.06559, -54.3984,  1
    30,'CANAD G1    ',  20.00,2,          0.000,          0.000,   1,   1,1.00000,   4.4789,  1
    31,'CANADA      ', 500.00,1,          0.000,          0.000,   1,   1,1.03623,   0.6879,  1
    32,'CANALB      ', 500.00,1,          0.000,          0.000,   1,   1,1.08148,  28.3718,  1
    33,'CA230TO     ', 230.00,1,          0.000,          0.000,   1,   1,0.98069,  32.8603,  1
    34,'CA230       ', 230.00,1,          0.000,          0.000,   1,   1,1.00132,  41.7397,  1
    35,'CMAIN GM    ',  20.00,2,          0.000,          0.000,   1,   1,1.02000,  46.6554,  1
    36,'BRIDGER2    ',  22.00,2,          0.000,          0.000,   1,   1,1.00900, -13.6819,  1
    37,'ADELANTO    ', 500.00,1,          0.000,        912.000,   2,   1,1.04353, -67.3709,  1
    38,'ADELAN&1    ', 500.00,1,          0.000,          0.000,   2,   1,1.06434, -71.3762,  1
    39,'CASTAIC     ', 230.00,1,          0.000,          0.000,   2,   1,1.02068, -72.4168,  1
    40,'CASTAI4G    ',  18.00,2,          0.000,          0.000,   2,   1,1.02000, -71.1587,  1
    41,'GLENDAL     ', 230.00,1,          0.000,          0.000,   2,   1,1.00843, -76.3357,  1
    42,'HAYNES      ', 230.00,1,          0.000,          0.000,   2,   1,1.02075, -76.1313,  1
    43,'HAYNES3G    ',  18.00,2,          0.000,          0.000,   2,   1,1.00000, -72.8076,  1
    44,'INTERMT     ', 345.00,1,          0.000,        430.000,   1,   1,1.04529, -33.5234,  1
    45,'INTERM1G    ',  26.00,2,          0.000,          0.000,   1,   1,1.05000, -28.8724,  1
    46,'OLIVE       ', 230.00,1,          0.000,          0.000,   2,   1,1.01962, -72.7420,  1
    47,'OWENS G     ',  11.50,2,          0.000,          0.000,   2,   1,1.02000, -72.6894,  1
    48,'RINALDI     ', 230.00,1,          0.000,          0.000,   2,   1,1.01834, -72.9620,  1
    49,'RINALDI     ', 500.00,1,          0.000,        -80.000,   2,   1,1.05603, -70.6854,  1
    50,'RIVER       ', 230.00,1,          0.000,          0.000,   2,   1,1.00991, -77.3457,  1
    51,'STA B       ', 138.00,1,          0.000,          0.000,   2,   1,1.01836, -77.4679,  1
    52,'STA B1      ', 287.00,1,          0.000,          0.000,   2,   1,1.02201, -76.2414,  1
    53,'STA B2      ', 287.00,1,          0.000,          0.000,   2,   1,1.02201, -76.2414,  1
    54,'STA BLD     ', 230.00,1,          0.000,          0.000,   2,   1,1.01327, -77.6571,  1
    55,'STA E       ', 230.00,1,          0.000,          0.000,   2,   1,1.00967, -75.4055,  1
    56,'STA E       ', 500.00,1,          0.000,          0.000,   2,   1,1.02696, -72.9735,  1
    57,'STA F       ', 230.00,1,          0.000,          0.000,   2,   1,1.01107, -77.3920,  1
    58,'STA G       ', 230.00,1,          0.000,          0.000,   2,   1,1.00948, -76.6163,  1
    59,'STA J       ', 230.00,1,          0.000,          0.000,   2,   1,1.01549, -74.1071,  1
    60,'SYLMARLA    ', 230.00,1,          0.000,       2146.000,   2,   1,1.02208, -72.1550,  1
    61,'SYLMAR S    ', 230.00,1,          0.000,          0.000,   2,   1,1.00550, -73.2896,  1
    62,'VALLEY      ', 230.00,1,          0.000,          0.000,   2,   1,1.01358, -74.2582,  1
    63,'VICTORVL    ', 287.00,1,          0.000,       -108.000,   2,   1,1.03621, -69.7736,  1
    64,'VICTORVL    ', 500.00,1,          0.000,          0.000,   2,   1,1.04276, -67.7825,  1
    65,'MONTA G1    ',  20.00,2,          0.000,          0.000,   1,   1,1.00000,  31.2454,  1
    66,'MONTANA     ', 500.00,1,          0.000,          0.000,   1,   1,1.05865,  22.9278,  1
    67,'BIG EDDY    ', 115.00,1,          0.000,          0.000,   1,   1,1.03924, -25.0031,  1
    68,'BIG EDDY    ', 230.00,1,          0.000,        576.850,   1,   1,1.03823, -22.3090,  1
    69,'BIG EDDY    ', 500.00,1,          0.000,          0.000,   1,   1,1.05983, -20.7991,  1
    70,'DALLES21    ',  13.80,2,          0.000,          0.000,   1,   1,1.05500, -15.5659,  1
    71,'CELILO      ', 230.00,1,          0.000,        792.000,   1,   1,1.03277, -22.8587,  1
    72,'CELILOCA    ', 500.00,1,          0.000,        462.000,   1,   1,1.06024, -20.9249,  1
    73,'COLSTRP     ', 500.00,1,          0.000,          0.000,   1,   1,1.05993, -10.2021,  1
    74,'COULEE      ', 500.00,1,          0.000,          0.000,   1,   1,1.07838, -13.7255,  1
    75,'GARRISON    ', 500.00,1,          0.000,          0.000,   1,   1,1.02073, -22.8020,  1
    76,'JOHN DAY    ', 500.00,1,          0.000,       1019.350,   1,   1,1.05421, -18.2355,  1
    77,'JOHN DAY    ',  13.80,3,          0.000,          0.000,   1,   1,1.00000,   0.0000,  1
    78,'HANFORD     ', 500.00,1,          0.000,        550.000,   1,   1,1.05768, -13.6643,  1
    79,'NORTH G3    ',  20.00,2,          0.000,          0.000,   1,   1,1.00000,  10.5167,  1
    80,'NORTH       ', 500.00,1,          0.000,       1200.000,   1,   1,1.05591,  -3.8781,  1
    81,'BURNS       ', 500.00,1,          0.000,       -220.000,   1,   1,1.00830, -31.3705,  1
    82,'GRIZZLY     ', 500.00,1,          0.000,       -674.000,   1,   1,1.02991, -27.8275,  1
    83,'MALIN       ', 500.00,1,          0.000,       -110.000,   1,   1,1.01308, -36.6448,  1
    84,'MIDPOINT    ', 500.00,1,          0.000,       -220.000,   1,   1,1.05187, -20.4147,  1
    85,'MIDPOINT    ', 345.00,1,          0.000,       -870.000,   1,   1,0.99461, -17.7250,  1
    86,'SUMMER L    ', 500.00,1,          0.000,          0.000,   1,   1,1.02121, -30.2669,  1
    87,'GRIZZLY1    ', 500.00,1,          0.000,          0.000,   1,   1,1.03332, -31.2935,  1
    88,'GRIZZLY2    ', 500.00,1,          0.000,          0.000,   1,   1,1.02856, -25.3855,  1
    89,'MALIN1      ', 500.00,1,          0.000,          0.000,   1,   1,1.01838, -25.1651,  1
    90,'MALIN2      ', 500.00,1,          0.000,          0.000,   1,   1,1.02238, -32.2252,  1
    91,'GRIZZLY3    ', 500.00,1,          0.000,          0.000,   1,   1,1.04036, -34.4106,  1
    92,'GRIZZLY4    ', 500.00,1,          0.000,          0.000,   1,   1,1.03001, -27.9117,  1
    93,'GRIZZLY5    ', 500.00,1,          0.000,          0.000,   1,   1,1.02793, -35.3424,  1
    94,'GRIZZLY6    ', 500.00,1,          0.000,          0.000,   1,   1,1.02976, -28.8073,  1
    95,'GRIZZLY7    ', 500.00,1,          0.000,          0.000,   1,   1,1.03996, -34.7792,  1
    96,'GRIZZLY8    ', 500.00,1,          0.000,          0.000,   1,   1,1.02965, -27.9124,  1
    97,'GRIZZLY9    ', 500.00,1,          0.000,          0.000,   1,   1,1.02726, -35.7643,  1
    98,'GRIZZLYA    ', 500.00,1,          0.000,          0.000,   1,   1,1.02891, -28.8568,  1
    99,'BURNS1      ', 500.00,1,          0.000,          0.000,   1,   1,0.97497, -10.6918,  1
   100,'CORTINA     ', 200.00,1,          0.000,          0.000,   3,   1,1.10799, -52.8404,  1
   101,'COTWDPGE    ', 200.00,1,          0.000,          0.000,   3,   1,1.11390, -47.7234,  1
   102,'DIABLO      ', 500.00,1,          0.000,          0.000,   2,   1,1.03579, -69.5570,  1
   103,'DIABLO1     ',  25.00,2,          0.000,          0.000,   2,   1,0.98000, -65.6685,  1
   104,'GATES       ', 500.00,1,          0.000,        -91.000,   2,   1,1.01983, -70.6577,  1
   105,'GLENN       ', 200.00,1,          0.000,          0.000,   3,   1,1.11802, -52.1636,  1
   106,'LOGAN CR    ', 200.00,1,          0.000,          0.000,   3,   1,1.11805, -52.5490,  1
   107,'LOSBANOS    ', 500.00,1,          0.000,          0.000,   2,   1,1.02159, -73.1002,  1
   108,'MIDWAY      ', 500.00,1,          0.000,       -327.000,   2,   1,1.03179, -72.3884,  1
   109,'MIDWAY      ', 200.00,1,          0.000,       -130.000,   2,   1,1.13430, -76.2508,  1
   110,'MOSSLAND    ', 500.00,1,          0.000,          0.000,   2,   1,1.01853, -73.3901,  1
   111,'OLINDA      ', 500.00,1,          0.000,          0.000,   3,   1,1.00020, -46.5634,  1
   112,'ROUND MT    ',  20.00,2,          0.000,          0.000,   3,   1,1.02000, -30.9927,  1
   113,'ROUND MT    ', 200.00,1,          0.000,       -128.000,   3,   1,1.10292, -41.2030,  1
   114,'ROUND MT    ', 500.00,1,          0.000,        -91.000,   3,   1,0.99736, -42.8333,  1
   115,'TABLE MT    ', 500.00,1,          0.000,        -91.000,   3,   1,0.97824, -47.9852,  1
   116,'TEVATR      ',  20.00,2,          0.000,          0.000,   3,   1,1.05000, -54.5152,  1
   117,'TEVATR      ', 200.00,1,          0.000,        -32.000,   3,   1,1.10962, -58.4435,  1
   118,'TEVATR2     ',  20.00,2,          0.000,          0.000,   3,   1,1.00000, -48.0445,  1
   119,'TEVATR      ', 500.00,1,          0.000,       1500.000,   3,   1,0.97424, -56.4597,  1
   120,'OLINDA1     ', 500.00,1,          0.000,          0.000,   3,   1,1.00679, -37.8325,  1
   121,'OLINDA2     ', 500.00,1,          0.000,          0.000,   3,   1,0.98673, -55.1842,  1
   122,'OLINDA3     ', 500.00,1,          0.000,          0.000,   3,   1,0.98850, -46.2757,  1
   123,'OLINDA4     ', 500.00,1,          0.000,          0.000,   3,   1,0.98056, -65.4381,  1
   124,'ROUND1      ', 500.00,1,          0.000,          0.000,   3,   1,1.00111, -35.5362,  1
   125,'ROUND2      ', 500.00,1,          0.000,          0.000,   3,   1,0.98278, -52.9418,  1
   126,'ROUND3      ', 500.00,1,          0.000,          0.000,   3,   1,1.00111, -35.5362,  1
   127,'ROUND4      ', 500.00,1,          0.000,          0.000,   3,   1,0.98278, -52.9418,  1
   128,'TABLE1      ', 500.00,1,          0.000,          0.000,   3,   1,0.97078, -40.2674,  1
   129,'TABLE2      ', 500.00,1,          0.000,          0.000,   3,   1,0.99305, -63.8895,  1
   130,'TABLE3      ', 500.00,1,          0.000,          0.000,   3,   1,0.97723, -42.1223,  1
   131,'TABLE4      ', 500.00,1,          0.000,          0.000,   3,   1,0.98099, -59.3467,  1
   132,'TEVATR1     ', 500.00,1,          0.000,          0.000,   2,   1,0.96199, -53.0824,  1
   133,'TEVATR2     ', 500.00,1,          0.000,          0.000,   2,   1,1.05465, -77.4520,  1
   134,'TEVATR3     ', 500.00,1,          0.000,          0.000,   2,   1,0.95945, -50.1045,  1
   135,'GATES1      ', 500.00,1,          0.000,          0.000,   2,   1,1.04450, -75.0362,  1
   136,'DEVERS      ', 500.00,1,          0.000,          0.000,   2,   1,1.02871, -70.7375,  1
   137,'EAGLROCK    ', 230.00,1,          0.000,          0.000,   2,   1,0.99763, -78.2348,  1
   138,'ELDORADO    ',  20.00,2,          0.000,          0.000,   2,   1,1.02000, -51.9210,  1
   139,'ELDORADO    ', 500.00,1,          0.000,       -319.000,   2,   1,1.04507, -59.0517,  1
   140,'LITEHIPE    ',  20.00,2,          0.000,          0.000,   2,   1,1.02000, -76.1278,  1
   141,'LITEHIPE    ', 230.00,1,          0.000,          0.000,   2,   1,1.00929, -82.2849,  1
   142,'LUGO        ', 500.00,1,          0.000,          0.000,   2,   1,1.03984, -71.7321,  1
   143,'MESA CAL    ', 230.00,1,          0.000,          0.000,   2,   1,0.99810, -81.0667,  1
   144,'MIRALOMA    ',  20.00,2,          0.000,          0.000,   2,   1,1.05000, -71.6847,  1
   145,'MIRALOMA    ', 500.00,1,          0.000,        400.000,   2,   1,1.02945, -75.9416,  1
   146,'MIRALOMA    ', 230.00,1,          0.000,          0.000,   2,   1,1.02702, -76.3671,  1
   147,'MOHAVE      ', 500.00,1,          0.000,       -196.000,   2,   1,1.06543, -55.1610,  1
   148,'MOHAV1CC    ',  22.00,2,          0.000,          0.000,   2,   1,1.05000, -46.8591,  1
   149,'PARDEE      ',  20.00,2,          0.000,          0.000,   2,   1,1.01000, -64.4906,  1
   150,'PARDEE      ', 230.00,1,          0.000,          0.000,   2,   1,0.99451, -76.7029,  1
   151,'SERRANO     ', 500.00,1,          0.000,          0.000,   2,   1,1.02937, -76.5250,  1
   152,'VALLEY      ', 500.00,1,          0.000,          0.000,   2,   1,1.02786, -74.6634,  1
   153,'VINCENT     ', 500.00,1,          0.000,          0.000,   2,   1,1.03758, -73.6782,  1
   154,'VINCENT     ', 230.00,1,          0.000,       -190.000,   2,   1,0.97550, -76.4913,  1
   155,'CAMP WIL    ', 345.00,1,          0.000,        -60.000,   1,   1,1.03387, -29.4976,  1
   156,'BENLOMND    ', 345.00,1,          0.000,          0.000,   1,   1,1.03295, -28.6920,  1
   157,'BENLOMND    ', 230.00,1,          0.000,          0.000,   1,   1,1.03648, -29.5860,  1
   158,'EMERY       ', 345.00,1,          0.000,       -220.000,   1,   1,1.03411, -22.5056,  1
   159,'EMERY       ',  20.00,2,          0.000,          0.000,   1,   1,1.05000, -17.8133,  1
   160,'MONA        ', 345.00,1,          0.000,          0.000,   1,   1,1.04640, -29.8172,  1
   161,'NAUGHTON    ', 230.00,1,          0.000,          0.000,   1,   1,1.04188, -26.1276,  1
   162,'NAUGHT      ',  20.00,2,          0.000,          0.000,   1,   1,1.00000, -23.3259,  1
   163,'PINTO PS    ', 345.00,1,          0.000,          0.000,   1,   1,1.03617, -28.6302,  1
   164,'PINTO       ', 345.00,1,          0.000,        -18.000,   1,   1,1.03998, -27.8330,  1
   165,'SPAN FRK    ', 345.00,1,          0.000,          0.000,   1,   1,1.02749, -28.3200,  1
   166,'SIGURD      ', 345.00,1,          0.000,        -50.000,   1,   1,1.04521, -28.3380,  1
   167,'TERMINAL    ', 345.00,1,          0.000,          0.000,   1,   1,1.02881, -29.9868,  1
   168,'MALIN3      ', 500.00,1,          0.000,          0.000,   3,   1,1.01815, -31.8397,  1
   169,'MALIN4      ', 500.00,1,          0.000,          0.000,   3,   1,0.99741, -47.7547,  1
   170,'MALIN5      ', 500.00,1,          0.000,          0.000,   3,   1,1.01882, -30.8238,  1
   171,'MALIN6      ', 500.00,1,          0.000,          0.000,   3,   1,0.99903, -47.7912,  1
   172,'MALIN7      ', 500.00,1,          0.000,          0.000,   3,   1,1.01853, -29.0787,  1
   173,'MALIN8      ', 500.00,1,          0.000,          0.000,   3,   1,1.00806, -54.1978,  1
   174,'MIDWAY1     ', 500.00,1,          0.000,          0.000,   2,   1,1.01248, -70.9710,  1
   175,'MIDWAY2     ', 500.00,1,          0.000,          0.000,   2,   1,1.03901, -75.0465,  1
   176,'MIDWAY3     ', 500.00,1,          0.000,          0.000,   2,   1,1.03179, -72.3884,  1
   177,'MIDWAY4     ', 500.00,1,          0.000,          0.000,   2,   1,1.03758, -73.6782,  1
   178,'MIDWAY5     ', 500.00,1,          0.000,          0.000,   2,   1,1.01160, -70.8781,  1
   179,'MIDWAY6     ', 500.00,1,          0.000,          0.000,   2,   1,1.04103, -74.9844,  1
   180,'BURNS2      ', 500.00,1,          0.000,       -220.000,   1,   1,0.97873, -21.4470,  1
0 / END OF BUS DATA, BEGIN LOAD DATA
     2,'BL',1,   1,   1,     0.000,     0.000,     0.000,     0.000,  1750.000,    56.000,  1
     4,'BL',1,   1,   1,     0.000,     0.000,     0.000,     0.000,   100.000,     0.000,  1
     5,'BL',1,   1,   1,     0.000,     0.000,     0.000,     0.000,  2350.000,   127.000,  1
     6,'BL',1,   1,   1,     0.000,     0.000,     0.000,     0.000,   100.000,     0.000,  1
     8,'BL',1,   1,   1,     0.000,     0.000,     0.000,     0.000,   239.000,    56.000,  1
     9,'BL',1,   1,   1,     0.000,     0.000,     0.000,     0.000,   100.000,     0.000,  1
    10,'BL',1,   1,   1,     0.000,     0.000,     0.000,     0.000,   139.700,   -23.800,  1
    11,'BL',1,   1,   1,     0.000,     0.000,     0.000,     0.000,   100.000,     0.000,  1
    12,'BL',1,   2,   1,     0.000,     0.000,     0.000,     0.000,    90.000,   -70.000,  1
    13,'BL',1,   2,   1,     0.000,     0.000,     0.000,     0.000,   100.000,     0.000,  1
    15,'BL',1,   2,   1,     0.000,     0.000,     0.000,     0.000,   100.000,     0.000,  1
    16,'BL',1,   2,   1,     0.000,     0.000,     0.000,     0.000,   793.400,  -207.000,  1
    17,'BL',1,   1,   1,     0.000,     0.000,     0.000,     0.000,   840.000,    -5.000,  1
    18,'BL',1,   1,   1,     0.000,     0.000,     0.000,     0.000,   100.000,     0.000,  1
    19,'BL',1,   2,   1,     0.000,     0.000,     0.000,     0.000,   617.000,    69.000,  1
    30,'BL',1,   1,   1,     0.000,     0.000,     0.000,     0.000,   100.000,     0.000,  1
    31,'BL',1,   1,   1,     0.000,     0.000,     0.000,     0.000,  4400.000, -1000.000,  1
    34,'BL',1,   1,   1,     0.000,     0.000,     0.000,     0.000,  3600.000,  -700.000,  1
    35,'BL',1,   1,   1,     0.000,     0.000,     0.000,     0.000,   100.000,     0.000,  1
    36,'BL',1,   1,   1,     0.000,     0.000,     0.000,     0.000,   100.000,     0.000,  1
    37,'BL',1,   2,   1,     0.000,     0.000,     0.000,     0.000, -1862.000,  -971.000,  1
    40,'BL',1,   2,   1,     0.000,     0.000,     0.000,     0.000,   100.000,     0.000,  1
    41,'BL',1,   2,   1,     0.000,     0.000,     0.000,     0.000,   135.000,   -27.000,  1
    43,'BL',1,   2,   1,     0.000,     0.000,     0.000,     0.000,   100.000,     0.000,  1
    44,'BL',1,   1,   1,     0.000,     0.000,     0.000,     0.000,  2053.000,  -907.100,  1
    45,'BL',1,   1,   1,     0.000,     0.000,     0.000,     0.000,   100.000,     0.000,  1
    46,'BL',1,   2,   1,     0.000,     0.000,     0.000,     0.000,   -72.800,    17.000,  1
    47,'BL',1,   2,   1,     0.000,     0.000,     0.000,     0.000,   100.000,     0.000,  1
    48,'BL',1,   2,   1,     0.000,     0.000,     0.000,     0.000,   121.000,   -25.000,  1
    50,'BL',1,   2,   1,     0.000,     0.000,     0.000,     0.000,   320.000,   -65.000,  1
    51,'BL',1,   2,   1,     0.000,     0.000,     0.000,     0.000,   237.200,    63.200,  1
    54,'BL',1,   2,   1,     0.000,     0.000,     0.000,     0.000,   138.000,   -28.000,  1
    55,'BL',1,   2,   1,     0.000,     0.000,     0.000,     0.000,   807.800,  -132.100,  1
    57,'BL',1,   2,   1,     0.000,     0.000,     0.000,     0.000,   117.000,   -24.000,  1
    58,'BL',1,   2,   1,     0.000,     0.000,     0.000,     0.000,   121.000,   -25.000,  1
    59,'BL',1,   2,   1,     0.000,     0.000,     0.000,     0.000,   887.700,     6.200,  1
    60,'BL',1,   2,   1,     0.000,     0.000,     0.000,     0.000, -2771.000, -1654.000,  1
    61,'BL',1,   2,   1,     0.000,     0.000,     0.000,     0.000,   401.000,   -80.600,  1
    62,'BL',1,   2,   1,     0.000,     0.000,     0.000,     0.000,   205.200,   -17.600,  1
    63,'BL',1,   2,   1,     0.000,     0.000,     0.000,     0.000,  -129.000,   -32.200,  1
    65,'BL',1,   1,   1,     0.000,     0.000,     0.000,     0.000,   100.000,     0.000,  1
    66,'BL',1,   1,   1,     0.000,     0.000,     0.000,     0.000,  1700.000,  -300.000,  1
    67,'BL',1,   1,   1,     0.000,     0.000,     0.000,     0.000,   160.000,   -31.250,  1
    68,'BL',1,   1,   1,     0.000,     0.000,     0.000,     0.000,   -67.500,  -160.000,  1
    69,'BL',1,   1,   1,     0.000,     0.000,     0.000,     0.000,   -44.200,   -22.000,  1
    70,'BL',1,   1,   1,     0.000,     0.000,     0.000,     0.000,   100.000,     0.000,  1
    71,'BL',1,   1,   1,     0.000,     0.000,     0.000,     0.000,  3137.000, -1681.000,  1
    73,'BL',1,   1,   1,     0.000,     0.000,     0.000,     0.000, -1525.000,    50.000,  1
    75,'BL',1,   1,   1,     0.000,     0.000,     0.000,     0.000,  2584.000,  -394.000,  1
    76,'BL',1,   1,   1,     0.000,     0.000,     0.000,     0.000,  3200.000, -1100.000,  1
    77,'BL',1,   1,   1,     0.000,     0.000,     0.000,     0.000,   100.000,     0.000,  1
    78,'BL',1,   1,   1,     0.000,     0.000,     0.000,     0.000,  3500.000,  -500.000,  1
    79,'BL',1,   1,   1,     0.000,     0.000,     0.000,     0.000,   100.000,     0.000,  1
    80,'BL',1,   1,   1,     0.000,     0.000,     0.000,     0.000,  5000.000,  -400.000,  1
    82,'BL',1,   1,   1,     0.000,     0.000,     0.000,     0.000,   -66.600,    97.000,  1
    83,'BL',1,   1,   1,     0.000,     0.000,     0.000,     0.000,  -339.000,   119.000,  1
    85,'BL',1,   1,   1,     0.000,     0.000,     0.000,     0.000,   610.000,   414.000,  1
   100,'BL',1,   3,   1,     0.000,     0.000,     0.000,     0.000,   -43.300,   -20.000,  1
   101,'BL',1,   3,   1,     0.000,     0.000,     0.000,     0.000,   210.400,    77.000,  1
   102,'BL',1,   2,   1,     0.000,     0.000,     0.000,     0.000,    50.000,   -25.000,  1
   103,'BL',1,   2,   1,     0.000,     0.000,     0.000,     0.000,   100.000,     0.000,  1
   104,'BL',1,   2,   1,     0.000,     0.000,     0.000,     0.000,   305.000,     7.600,  1
   105,'BL',1,   3,   1,     0.000,     0.000,     0.000,     0.000,    27.500,     0.100,  1
   106,'BL',1,   3,   1,     0.000,     0.000,     0.000,     0.000,     8.010,     0.000,  1
   107,'BL',1,   2,   1,     0.000,     0.000,     0.000,     0.000,   265.000,   -14.000,  1
   108,'BL',1,   2,   1,     0.000,     0.000,     0.000,     0.000,    55.600,   329.000,  1
   109,'BL',1,   2,   1,     0.000,     0.000,     0.000,     0.000,   777.600,   -32.600,  1
   110,'BL',1,   2,   1,     0.000,     0.000,     0.000,     0.000,    40.000,   -21.500,  1
   111,'BL',1,   3,   1,     0.000,     0.000,     0.000,     0.000,  -189.000,   -61.500,  1
   112,'BL',1,   3,   1,     0.000,     0.000,     0.000,     0.000,   100.000,     0.000,  1
   113,'BL',1,   3,   1,     0.000,     0.000,     0.000,     0.000,   148.000,     0.000,  1
   115,'BL',1,   3,   1,     0.000,     0.000,     0.000,     0.000,    -0.700,  -118.500,  1
   116,'BL',1,   3,   1,     0.000,     0.000,     0.000,     0.000,   100.000,     0.000,  1
   117,'BL',1,   3,   1,     0.000,     0.000,     0.000,     0.000,   884.000,   -54.800,  1
   118,'BL',1,   3,   1,     0.000,     0.000,     0.000,     0.000,   100.000,     0.000,  1
   119,'BL',1,   3,   1,     0.000,     0.000,     0.000,     0.000,  5661.000, -3491.000,  1
   136,'BL',1,   2,   1,     0.000,     0.000,     0.000,     0.000,   856.000,   -19.600,  1
   137,'BL',1,   2,   1,     0.000,     0.000,     0.000,     0.000,   175.000,   -18.000,  1
   138,'BL',1,   2,   1,     0.000,     0.000,     0.000,     0.000,   100.000,     0.000,  1
   139,'BL',1,   2,   1,     0.000,     0.000,     0.000,     0.000,   902.300,    11.400,  1
   140,'BL',1,   2,   1,     0.000,     0.000,     0.000,     0.000,   100.000,     0.000,  1
   141,'BL',1,   2,   1,     0.000,     0.000,     0.000,     0.000,  3191.000,  -630.000,  1
   142,'BL',1,   2,   1,     0.000,     0.000,     0.000,     0.000,   204.200,    28.200,  1
   143,'BL',1,   2,   1,     0.000,     0.000,     0.000,     0.000,   377.400,   -64.500,  1
   144,'BL',1,   2,   1,     0.000,     0.000,     0.000,     0.000,   100.000,     0.000,  1
   145,'BL',1,   2,   1,     0.000,     0.000,     0.000,     0.000,  3098.000, -1189.000,  1
   148,'BL',1,   2,   1,     0.000,     0.000,     0.000,     0.000,   100.000,     0.000,  1
   149,'BL',1,   2,   1,     0.000,     0.000,     0.000,     0.000,   100.000,     0.000,  1
   150,'BL',1,   2,   1,     0.000,     0.000,     0.000,     0.000,  3118.000,   -78.000,  1
   151,'BL',1,   2,   1,     0.000,     0.000,     0.000,     0.000,  1230.000,   -72.800,  1
   152,'BL',1,   2,   1,     0.000,     0.000,     0.000,     0.000,   406.000,   -41.000,  1
   154,'BL',1,   2,   1,     0.000,     0.000,     0.000,     0.000,  1066.000,    10.800,  1
   155,'BL',1,   1,   1,     0.000,     0.000,     0.000,     0.000,   457.700,   -81.700,  1
   156,'BL',1,   1,   1,     0.000,     0.000,     0.000,     0.000,    33.900,   -11.900,  1
   157,'BL',1,   1,   1,     0.000,     0.000,     0.000,     0.000,   148.000,     7.900,  1
   158,'BL',1,   1,   1,     0.000,     0.000,     0.000,     0.000,   116.100,   -38.400,  1
   159,'BL',1,   1,   1,     0.000,     0.000,     0.000,     0.000,   100.000,     0.000,  1
   160,'BL',1,   1,   1,     0.000,     0.000,     0.000,     0.000,   -62.000,   -12.800,  1
   161,'BL',1,   1,   1,     0.000,     0.000,     0.000,     0.000,   255.000,  -100.000,  1
   162,'BL',1,   1,   1,     0.000,     0.000,     0.000,     0.000,   100.000,     0.000,  1
   164,'BL',1,   1,   1,     0.000,     0.000,     0.000,     0.000,    31.600,   -11.500,  1
   165,'BL',1,   1,   1,     0.000,     0.000,     0.000,     0.000,   141.200,   -71.400,  1
   166,'BL',1,   1,   1,     0.000,     0.000,     0.000,     0.000,   379.000,    43.000,  1
   167,'BL',1,   1,   1,     0.000,     0.000,     0.000,     0.000,   185.000,   -78.500,  1
0 / END OF LOAD DATA, BEGIN GENERATOR DATA
     4,'1 ',   800.00,   106.12,   300.00,  -300.00,1.04000,     0,   914.00,      0.00000,      0.14500,      0.00000,      0.00000,1.00000,1,  100.0,  9999.00,     0.00,   1,1.0000,,,,,,,
     6,'1 ',  1048.00,   -98.72,   400.00,  -400.00,0.95000,     0,  1488.00,      0.00000,      0.14000,      0.00000,      0.00000,1.00000,1,  100.0,  9999.00,     0.00,   1,1.0000,,,,,,,
     9,'1 ',  2160.00,   -23.98,   700.00,  -500.00,1.00000,     0,  2458.00,      0.00000,      0.15500,      0.00000,      0.00000,1.00000,1,  100.0,  9999.00,     0.00,   1,1.0000,,,,,,,
    11,'1 ',  2050.00,   494.58,   900.00,  -900.00,1.00000,     0,  3000.00,      0.00000,      0.14000,      0.00000,      0.00000,1.00000,1,  100.0,  9999.00,     0.00,   1,1.0000,,,,,,,
    13,'1 ',  1690.00,   241.57,   700.00,  -280.00,1.00000,     0,  3540.00,      0.00000,      0.13000,      0.00000,      0.00000,1.00000,1,  100.0,  9999.00,     0.00,   1,1.0000,,,,,,,
    15,'1 ',  2640.00,   436.17,  1300.00,  -900.00,0.96000,     0,  3118.00,      0.00000,      0.22500,      0.00000,      0.00000,1.00000,1,  100.0,  9999.00,     0.00,   1,1.0000,,,,,,,
    18,'1 ',   962.00,   168.41,   300.00,  -300.00,1.00000,     0,  2054.00,      0.00000,      0.14500,      0.00000,      0.00000,1.00000,1,  100.0,  9999.00,     0.00,   1,1.0000,,,,,,,
    30,'1 ',  4450.00,  1018.43,  4000.00, -4000.00,1.00000,     0,  9004.00,      0.00000,      0.09000,      0.00000,      0.00000,1.00000,1,  100.0,  9999.00,     0.00,   1,1.0000,,,,,,,
    35,'1 ',  4480.00,  1140.34,  5320.00, -3500.00,1.02000,     0,  6100.00,      0.00000,      0.23900,      0.00000,      0.00000,1.00000,1,  100.0,  9999.00,     0.00,   1,1.0000,,,,,,,
    36,'1 ',  1640.00,   370.03,   600.00,  -525.00,1.00900,     0,  1770.00,      0.00000,      0.15500,      0.00000,      0.00000,1.00000,1,  100.0,  9999.00,     0.00,   1,1.0000,,,,,,,
    40,'1 ',   200.00,    -3.89,   268.00,  -134.00,1.02000,     0,   500.00,      0.00000,      0.08900,      0.00000,      0.00000,1.00000,1,  100.0,  9999.00,     0.00,   1,1.0000,,,,,,,
    43,'1 ',   325.00,   107.90,   300.00,  -220.00,1.00000,     0,   540.00,      0.00000,      0.15500,      0.00000,      0.00000,1.00000,1,  100.0,  9999.00,     0.00,   1,1.0000,,,,,,,
    45,'1 ',  1780.00,   677.79,   850.00,  -440.00,1.05000,     0,  1982.00,      0.00000,      0.15000,      0.00000,      0.00000,1.00000,1,  100.0,  9999.00,     0.00,   1,1.0000,,,,,,,
    47,'1 ',   110.00,    42.53,   100.00,  -100.00,1.02000,     0,   113.00,      0.00000,      0.14000,      0.00000,      0.00000,1.00000,1,  100.0,  9999.00,     0.00,   1,1.0000,,,,,,,
    65,'1 ',  2910.00,   779.57,  1500.00, -1000.00,1.00000,     0,  3085.00,      0.00000,      0.12800,      0.00000,      0.00000,1.00000,1,  100.0,  9999.00,     0.00,   1,1.0000,,,,,,,
    70,'1 ',  1301.00,   702.17,   992.00,  -711.00,1.05500,     0,  1199.00,      0.00000,      0.24000,      0.00000,      0.00000,1.00000,1,  100.0,  9999.00,     0.00,   1,1.0000,,,,,,,
    77,'1 ',  8114.08,  2342.78,  2649.00, -1850.00,1.00000,     0,  5421.00,      0.00000,      0.24000,      0.00000,      0.00000,1.00000,1,  100.0,  9999.00,     0.00,   1,1.0000,,,,,,,
    79,'1 ',  9950.00,  1622.37,  5780.00, -2000.00,1.00000,     0, 13000.00,      0.00000,      0.12700,      0.00000,      0.00000,1.00000,1,  100.0,  9999.00,     0.00,   1,1.0000,,,,,,,
   103,'1 ',   765.00,   -41.93,   330.00,  -310.00,0.98000,     0,  1685.00,      0.00000,      0.25000,      0.00000,      0.00000,1.00000,1,  100.0,  9999.00,     0.00,   1,1.0000,,,,,,,
   112,'1 ',  1057.00,   128.62,   400.00,  -400.00,1.02000,     0,  1022.00,      0.00000,      0.14000,      0.00000,      0.00000,1.00000,1,  100.0,  9999.00,     0.00,   1,1.0000,,,,,,,
   116,'1 ',   594.00,   305.30,   600.00,  -300.00,1.05000,     0,   895.00,      0.00000,      0.21500,      0.00000,      0.00000,1.00000,1,  100.0,  9999.00,     0.00,   1,1.0000,,,,,,,
   118,'1 ',  3467.00,  2225.23,  2500.00, -1000.00,1.00000,     0,  6840.00,      0.00000,      0.14000,      0.00000,      0.00000,1.00000,1,  100.0,  9999.00,     0.00,   1,1.0000,,,,,,,
   138,'1 ',   982.70,   -87.30,   300.00,  -300.00,1.02000,     0,  2104.00,      0.00000,      0.21500,      0.00000,      0.00000,1.00000,1,  100.0,  9999.00,     0.00,   1,1.0000,,,,,,,
   140,'1 ',  3195.00,  1105.97,  2000.00,  -900.00,1.02000,     0,  9000.00,      0.00000,      0.09500,      0.00000,      0.00000,1.00000,1,  100.0,  9999.00,     0.00,   1,1.0000,,,,,,,
   144,'1 ',  1690.00,   829.76,   900.00,  -400.00,1.05000,     0,  3000.00,      0.00000,      0.24000,      0.00000,      0.00000,1.00000,1,  100.0,  9999.00,     0.00,   1,1.0000,,,,,,,
   148,'1 ',  1680.00,   492.21,   700.00,  -300.00,1.05000,     0,  1818.00,      0.00000,      0.15500,      0.00000,      0.00000,1.00000,1,  100.0,  9999.00,     0.00,   1,1.0000,,,,,,,
   149,'1 ',  2200.00,   510.55,   600.00,  -600.00,1.01000,     0,  2500.00,      0.00000,      0.13500,      0.00000,      0.00000,1.00000,1,  100.0,  9999.00,     0.00,   1,1.0000,,,,,,,
   159,'1 ',  1665.00,    22.18,  9999.00, -9999.00,1.05000,     0,  2229.00,      0.00000,      0.13000,      0.00000,      0.00000,1.00000,1,  100.0,  9999.00,     0.00,   1,1.0000,,,,,,,
   162,'1 ',   445.00,   109.45,  9999.00, -9999.00,1.00000,     0,   832.00,      0.00000,      0.19300,      0.00000,      0.00000,1.00000,1,  100.0,  9999.00,     0.00,   1,1.0000,,,,,,,
 0 / END OF GENERATOR DATA, BEGIN BRANCH DATA
     5,    160,'1 ',    0.81100E-02,    0.13690    ,     2.4348    ,    0.00,    0.00,    0.00,  0.00000,  0.00000,  0.00000,  0.00000,1,   0.00,   1,1.0000,,,,,,,
     3,      8,'1 ',    0.17900E-02,    0.19880E-01,     2.5760    ,    0.00,    0.00,    0.00,  0.00000,  0.00000,  0.00000,  0.00000,1,   0.00,   1,1.0000,,,,,,,
     8,     17,'1 ',    0.50000E-03,    0.53000E-02,    0.88200E-01,    0.00,    0.00,    0.00,  0.00000,  0.00000,  0.00000,  0.00000,1,   0.00,   1,1.0000,,,,,,,
    17,      5,'1 ',    0.97700E-02,    0.11000    ,     2.0000    ,    0.00,    0.00,    0.00,  0.00000,  0.00000,  0.00000,  0.00000,1,   0.00,   1,1.0000,,,,,,,
    12,     20,'1 ',     0.0000    ,   -0.63400E-02,     0.0000    ,    0.00,    0.00,    0.00,  0.00000,  0.00000,  0.00000,  0.00000,1,   0.00,   1,1.0000,,,,,,,
    20,     21,'1 ',    0.77000E-03,    0.18040E-01,     1.3984    ,    0.00,    0.00,    0.00,  0.00000,  0.00000,  0.00000,  0.00000,1,   0.00,   1,1.0000,,,,,,,
    21,     14,'1 ',     0.0000    ,   -0.63400E-02,     0.0000    ,    0.00,    0.00,    0.00,  0.00000,  0.00000,  0.00000,  0.00000,1,   0.00,   1,1.0000,,,,,,,
    12,     22,'1 ',     0.0000    ,   -0.11880E-01,     0.0000    ,    0.00,    0.00,    0.00,  0.00000,  0.00000,  0.00000,  0.00000,1,   0.00,   1,1.0000,,,,,,,
    22,     23,'1 ',    0.24100E-02,    0.58650E-01,     4.8656    ,    0.00,    0.00,    0.00,  0.00000,  0.00000,  0.00000,  0.00000,1,   0.00,   1,1.0000,,,,,,,
    23,     19,'1 ',     0.0000    ,   -0.11880E-01,     0.0000    ,    0.00,    0.00,    0.00,  0.00000,  0.00000,  0.00000,  0.00000,1,   0.00,   1,1.0000,,,,,,,
    14,     24,'1 ',     0.0000    ,   -0.82600E-02,     0.0000    ,    0.00,    0.00,    0.00,  0.00000,  0.00000,  0.00000,  0.00000,1,   0.00,   1,1.0000,,,,,,,
    24,     25,'1 ',    0.17900E-02,    0.42440E-01,     3.3922    ,    0.00,    0.00,    0.00,  0.00000,  0.00000,  0.00000,  0.00000,1,   0.00,   1,1.0000,,,,,,,
    25,     19,'1 ',     0.0000    ,   -0.82600E-02,     0.0000    ,    0.00,    0.00,    0.00,  0.00000,  0.00000,  0.00000,  0.00000,1,   0.00,   1,1.0000,,,,,,,
    14,     26,'1 ',     0.0000    ,   -0.17950E-01,     0.0000    ,    0.00,    0.00,    0.00,  0.00000,  0.00000,  0.00000,  0.00000,1,   0.00,   1,1.0000,,,,,,,
    26,     27,'1 ',    0.20700E-02,    0.49590E-01,     3.9516    ,    0.00,    0.00,    0.00,  0.00000,  0.00000,  0.00000,  0.00000,1,   0.00,   1,1.0000,,,,,,,
    27,    139,'1 ',     0.0000    ,   -0.17950E-01,     0.0000    ,    0.00,    0.00,    0.00,  0.00000,  0.00000,  0.00000,  0.00000,1,   0.00,   1,1.0000,,,,,,,
    16,     19,'1 ',    0.40000E-03,    0.96000E-02,    0.90380    ,    0.00,    0.00,    0.00,  0.00000,  0.00000,  0.00000,  0.00000,1,   0.00,   1,1.0000,,,,,,,
    16,     19,'2 ',    0.40000E-03,    0.96000E-02,    0.90380    ,    0.00,    0.00,    0.00,  0.00000,  0.00000,  0.00000,  0.00000,1,   0.00,   1,1.0000,,,,,,,
     7,     28,'1 ',     0.0000    ,   -0.40800E-02,     0.0000    ,    0.00,    0.00,    0.00,  0.00000,  0.00000,  0.00000,  0.00000,1,   0.00,   1,1.0000,,,,,,,
    28,     29,'1 ',    0.17700E-02,    0.41890E-01,     3.3446    ,    0.00,    0.00,    0.00,  0.00000,  0.00000,  0.00000,  0.00000,1,   0.00,   1,1.0000,,,,,,,
    29,     14,'1 ',     0.0000    ,   -0.61200E-02,     0.0000    ,    0.00,    0.00,    0.00,  0.00000,  0.00000,  0.00000,  0.00000,1,   0.00,   1,1.0000,,,,,,,
    31,     32,'1 ',    0.35000E-02,    0.70000E-01,     4.6060    ,    0.00,    0.00,    0.00,  0.00000,  0.00000,  0.00000,  0.00000,1,   0.00,   1,1.0000,,,,,,,
    33,     34,'1 ',    0.20000E-02,    0.20000E-01,    0.80000    ,    0.00,    0.00,    0.00,  0.00000,  0.00000,  0.00000,  0.00000,1,   0.00,   1,1.0000,,,,,,,
    52,     63,'1 ',    0.10700E-01,    0.79050E-01,    0.36670    ,    0.00,    0.00,    0.00,  0.00000,  0.00000,  0.00000,  0.00000,1,   0.00,   1,1.0000,,,,,,,
    53,     63,'1 ',    0.10700E-01,    0.79050E-01,    0.36670    ,    0.00,    0.00,    0.00,  0.00000,  0.00000,  0.00000,  0.00000,1,   0.00,   1,1.0000,,,,,,,
    55,     41,'1 ',    0.47000E-03,    0.72300E-02,    0.16240E-01,    0.00,    0.00,    0.00,  0.00000,  0.00000,  0.00000,  0.00000,1,   0.00,   1,1.0000,,,,,,,
    55,     58,'1 ',    0.11900E-02,    0.12440E-01,    0.27980E-01,    0.00,    0.00,    0.00,  0.00000,  0.00000,  0.00000,  0.00000,1,   0.00,   1,1.0000,,,,,,,
    55,     58,'2 ',    0.11900E-02,    0.12440E-01,    0.27980E-01,    0.00,    0.00,    0.00,  0.00000,  0.00000,  0.00000,  0.00000,1,   0.00,   1,1.0000,,,,,,,
    57,     42,'1 ',    0.20100E-02,    0.30740E-01,    0.68860E-01,    0.00,    0.00,    0.00,  0.00000,  0.00000,  0.00000,  0.00000,1,   0.00,   1,1.0000,,,,,,,
    57,     54,'1 ',    0.73000E-03,    0.10250E-01,    0.25580E-01,    0.00,    0.00,    0.00,  0.00000,  0.00000,  0.00000,  0.00000,1,   0.00,   1,1.0000,,,,,,,
    57,     54,'2 ',    0.73000E-03,    0.10250E-01,    0.25580E-01,    0.00,    0.00,    0.00,  0.00000,  0.00000,  0.00000,  0.00000,1,   0.00,   1,1.0000,,,,,,,
    57,     58,'1 ',    0.11000E-02,    0.11890E-01,    0.25140E-01,    0.00,    0.00,    0.00,  0.00000,  0.00000,  0.00000,  0.00000,1,   0.00,   1,1.0000,,,,,,,
    62,     55,'1 ',    0.12800E-02,    0.97900E-02,    0.21200E-01,    0.00,    0.00,    0.00,  0.00000,  0.00000,  0.00000,  0.00000,1,   0.00,   1,1.0000,,,,,,,
    64,     49,'1 ',    0.83000E-03,    0.18840E-01,     1.6667    ,    0.00,    0.00,    0.00,  0.00000,  0.00000,  0.00000,  0.00000,1,   0.00,   1,1.0000,,,,,,,
    41,     58,'1 ',    0.35000E-03,    0.53600E-02,    0.12040E-01,    0.00,    0.00,    0.00,  0.00000,  0.00000,  0.00000,  0.00000,1,   0.00,   1,1.0000,,,,,,,
    37,     38,'1 ',    0.74000E-03,    0.18610E-01,     1.4026    ,    0.00,    0.00,    0.00,  0.00000,  0.00000,  0.00000,  0.00000,1,   0.00,   1,1.0000,,,,,,,
    37,     56,'1 ',    0.82000E-03,    0.16680E-01,     1.1880    ,    0.00,    0.00,    0.00,  0.00000,  0.00000,  0.00000,  0.00000,1,   0.00,   1,1.0000,,,,,,,
    37,     64,'1 ',     0.0000    ,    0.15900E-02,    0.12002    ,    0.00,    0.00,    0.00,  0.00000,  0.00000,  0.00000,  0.00000,1,   0.00,   1,1.0000,,,,,,,
    37,     64,'2 ',     0.0000    ,    0.15900E-02,    0.12002    ,    0.00,    0.00,    0.00,  0.00000,  0.00000,  0.00000,  0.00000,1,   0.00,   1,1.0000,,,,,,,
    42,     58,'1 ',    0.28100E-02,    0.42960E-01,    0.96480E-01,    0.00,    0.00,    0.00,  0.00000,  0.00000,  0.00000,  0.00000,1,   0.00,   1,1.0000,,,,,,,
    48,     62,'1 ',    0.13800E-02,    0.11160E-01,    0.24700E-01,    0.00,    0.00,    0.00,  0.00000,  0.00000,  0.00000,  0.00000,1,   0.00,   1,1.0000,,,,,,,
    48,     62,'2 ',    0.13800E-02,    0.11160E-01,    0.24700E-01,    0.00,    0.00,    0.00,  0.00000,  0.00000,  0.00000,  0.00000,1,   0.00,   1,1.0000,,,,,,,
    50,     42,'1 ',    0.22000E-02,    0.34220E-01,    0.77160E-01,    0.00,    0.00,    0.00,  0.00000,  0.00000,  0.00000,  0.00000,1,   0.00,   1,1.0000,,,,,,,
    50,     42,'2 ',    0.23800E-02,    0.36690E-01,    0.82840E-01,    0.00,    0.00,    0.00,  0.00000,  0.00000,  0.00000,  0.00000,1,   0.00,   1,1.0000,,,,,,,
    50,     57,'1 ',    0.37000E-03,    0.36600E-02,    0.83000E-02,    0.00,    0.00,    0.00,  0.00000,  0.00000,  0.00000,  0.00000,1,   0.00,   1,1.0000,,,,,,,
    50,     58,'1 ',    0.55000E-03,    0.58600E-02,    0.12460E-01,    0.00,    0.00,    0.00,  0.00000,  0.00000,  0.00000,  0.00000,1,   0.00,   1,1.0000,,,,,,,
    48,     55,'1 ',    0.22900E-02,    0.15830E-01,    0.30600E-01,    0.00,    0.00,    0.00,  0.00000,  0.00000,  0.00000,  0.00000,1,   0.00,   1,1.0000,,,,,,,
    48,     55,'2 ',    0.22900E-02,    0.15830E-01,    0.30600E-01,    0.00,    0.00,    0.00,  0.00000,  0.00000,  0.00000,  0.00000,1,   0.00,   1,1.0000,,,,,,,
    39,     46,'1 ',    0.22100E-02,    0.33460E-01,    0.73380E-01,    0.00,    0.00,    0.00,  0.00000,  0.00000,  0.00000,  0.00000,1,   0.00,   1,1.0000,,,,,,,
    39,     48,'1 ',    0.29000E-02,    0.38000E-01,    0.82400E-01,    0.00,    0.00,    0.00,  0.00000,  0.00000,  0.00000,  0.00000,1,   0.00,   1,1.0000,,,,,,,
    39,     59,'1 ',    0.30900E-02,    0.46770E-01,    0.10080    ,    0.00,    0.00,    0.00,  0.00000,  0.00000,  0.00000,  0.00000,1,   0.00,   1,1.0000,,,,,,,
    39,     60,'1 ',    0.22600E-02,    0.34220E-01,    0.75060E-01,    0.00,    0.00,    0.00,  0.00000,  0.00000,  0.00000,  0.00000,1,   0.00,   1,1.0000,,,,,,,
    48,     46,'1 ',    0.29000E-03,    0.43400E-02,    0.95000E-02,    0.00,    0.00,    0.00,  0.00000,  0.00000,  0.00000,  0.00000,1,   0.00,   1,1.0000,,,,,,,
    48,     59,'1 ',    0.14100E-02,    0.96700E-02,    0.19400E-01,    0.00,    0.00,    0.00,  0.00000,  0.00000,  0.00000,  0.00000,1,   0.00,   1,1.0000,,,,,,,
    48,     59,'2 ',    0.14100E-02,    0.96700E-02,    0.19400E-01,    0.00,    0.00,    0.00,  0.00000,  0.00000,  0.00000,  0.00000,1,   0.00,   1,1.0000,,,,,,,
    48,     59,'3 ',    0.16100E-02,    0.97100E-02,    0.19280E-01,    0.00,    0.00,    0.00,  0.00000,  0.00000,  0.00000,  0.00000,1,   0.00,   1,1.0000,,,,,,,
    48,     59,'4 ',    0.16100E-02,    0.97100E-02,    0.19280E-01,    0.00,    0.00,    0.00,  0.00000,  0.00000,  0.00000,  0.00000,1,   0.00,   1,1.0000,,,,,,,
    48,     60,'1 ',    0.27000E-03,    0.39300E-02,    0.91800E-02,    0.00,    0.00,    0.00,  0.00000,  0.00000,  0.00000,  0.00000,1,   0.00,   1,1.0000,,,,,,,
    48,     60,'2 ',    0.27000E-03,    0.39300E-02,    0.91800E-02,    0.00,    0.00,    0.00,  0.00000,  0.00000,  0.00000,  0.00000,1,   0.00,   1,1.0000,,,,,,,
    48,     60,'3 ',    0.27000E-03,    0.39300E-02,    0.91800E-02,    0.00,    0.00,    0.00,  0.00000,  0.00000,  0.00000,  0.00000,1,   0.00,   1,1.0000,,,,,,,
    75,     78,'1 ',    0.14200E-02,    0.22580E-01,     1.8800    ,    0.00,    0.00,    0.00,  0.00000,  0.00000,  0.00000,  0.00000,1,   0.00,   1,1.0000,,,,,,,
    75,     76,'1 ',    0.19600E-02,    0.33040E-01,     1.8800    ,    0.00,    0.00,    0.00,  0.00000,  0.00000,  0.00000,  0.00000,1,   0.00,   1,1.0000,,,,,,,
    75,     73,'1 ',    0.17900E-02,    0.14050E-01,     3.6800    ,    0.00,    0.00,    0.00,  0.00000,  0.00000,  0.00000,  0.00000,1,   0.00,   1,1.0000,,,,,,,
    78,     74,'1 ',    0.11300E-02,    0.20690E-01,     1.8553    ,    0.00,    0.00,    0.00,  0.00000,  0.00000,  0.00000,  0.00000,1,   0.00,   1,1.0000,,,,,,,
    78,     76,'1 ',    0.12000E-02,    0.23160E-01,     1.7152    ,    0.00,    0.00,    0.00,  0.00000,  0.00000,  0.00000,  0.00000,1,   0.00,   1,1.0000,,,,,,,
    78,     76,'2 ',    0.30000E-03,    0.20000E-01,     3.6000    ,    0.00,    0.00,    0.00,  0.00000,  0.00000,  0.00000,  0.00000,1,   0.00,   1,1.0000,,,,,,,
    80,     78,'1 ',    0.20000E-03,    0.82000E-02,     1.3000    ,    0.00,    0.00,    0.00,  0.00000,  0.00000,  0.00000,  0.00000,1,   0.00,   1,1.0000,,,,,,,
    80,     78,'2 ',    0.20000E-03,    0.82000E-02,     1.3000    ,    0.00,    0.00,    0.00,  0.00000,  0.00000,  0.00000,  0.00000,1,   0.00,   1,1.0000,,,,,,,
    68,     71,'1 ',    0.60000E-04,    0.13100E-02,    0.37800E-02,    0.00,    0.00, 3020.00,  0.00000,  0.00000,  0.00000,  0.00000,1,   0.00,   1,1.0000,,,,,,,
    68,     71,'2 ',    0.60000E-04,    0.11600E-02,    0.33200E-02,    0.00,    0.00, 3020.00,  0.00000,  0.00000,  0.00000,  0.00000,1,   0.00,   1,1.0000,,,,,,,
    69,     72,'1 ',    0.10000E-04,    0.30000E-03,    0.14340E-01,    0.00,    0.00, 3450.00,  0.00000,  0.00000,  0.00000,  0.00000,1,   0.00,   1,1.0000,,,,,,,
    69,     72,'2 ',    0.10000E-04,    0.30000E-03,    0.18440E-01,    0.00,    0.00, 3450.00,  0.00000,  0.00000,  0.00000,  0.00000,1,   0.00,   1,1.0000,,,,,,,
    69,     76,'1 ',    0.23000E-03,    0.45100E-02,    0.33320    ,    0.00,    0.00, 2175.00,  0.00000,  0.00000,  0.00000,  0.00000,1,   0.00,   1,1.0000,,,,,,,
    69,     76,'2 ',    0.20000E-03,    0.44600E-02,    0.30500    ,    0.00,    0.00, 2175.00,  0.00000,  0.00000,  0.00000,  0.00000,1,   0.00,   1,1.0000,,,,,,,
    82,     76,'1 ',    0.63000E-03,    0.14120E-01,     1.0976    ,    0.00,    0.00, 3450.00,  0.00000,  0.00000,  0.00000,  0.00000,1,   0.00,   1,1.0000,,,,,,,
    82,     76,'2 ',    0.10900E-02,    0.24080E-01,     1.5554    ,    0.00,    0.00, 3020.00,  0.00000,  0.00000,  0.00000,  0.00000,1,   0.00,   1,1.0000,,,,,,,
    82,     76,'3 ',    0.10800E-02,    0.24090E-01,     1.5535    ,    0.00,    0.00, 3020.00,  0.00000,  0.00000,  0.00000,  0.00000,1,   0.00,   1,1.0000,,,,,,,
    82,     87,'1 ',    0.41000E-03,    0.73700E-02,    0.72694    ,    0.00,    0.00, 3450.00,  0.00000,  0.00000,  0.00000,  0.00000,1,   0.00,   1,1.0000,,,,,,,
    87,     88,'1 ',     0.0000    ,   -0.12630E-01,     0.0000    ,    0.00,    0.00, 2000.00,  0.00000,  0.00000,  0.00000,  0.00000,1,   0.00,   1,1.0000,,,,,,,
    88,     86,'1 ',    0.60000E-03,    0.10360E-01,     1.0146    ,    0.00,    0.00, 3450.00,  0.00000,  0.00000,  0.00000,  0.00000,1,   0.00,   1,1.0000,,,,,,,
    83,     89,'1 ',    0.72000E-03,    0.13820E-01,     1.2757    ,    0.00,    0.00, 3600.00,  0.00000,  0.00000,  0.00000,  0.00000,1,   0.00,   1,1.0000,,,,,,,
    89,     90,'1 ',     0.0000    ,   -0.85800E-02,     0.0000    ,    0.00,    0.00, 2000.00,  0.00000,  0.00000,  0.00000,  0.00000,1,   0.00,   1,1.0000,,,,,,,
    90,     86,'1 ',    0.12000E-03,    0.23800E-02,    0.21926    ,    0.00,    0.00, 3600.00,  0.00000,  0.00000,  0.00000,  0.00000,1,   0.00,   1,1.0000,,,,,,,
    82,     91,'1 ',    0.66000E-03,    0.12660E-01,    0.95976    ,    0.00,    0.00, 3020.00,  0.00000,  0.00000,  0.00000,  0.00000,1,   0.00,   1,1.0000,,,,,,,
    91,     92,'1 ',     0.0000    ,   -0.12630E-01,     0.0000    ,    0.00,    0.00, 2400.00,  0.00000,  0.00000,  0.00000,  0.00000,1,   0.00,   1,1.0000,,,,,,,
    92,     93,'1 ',    0.74000E-03,    0.14280E-01,     1.0822    ,    0.00,    0.00, 3020.00,  0.00000,  0.00000,  0.00000,  0.00000,1,   0.00,   1,1.0000,,,,,,,
    93,     94,'1 ',     0.0000    ,   -0.12630E-01,     0.0000    ,    0.00,    0.00, 2400.00,  0.00000,  0.00000,  0.00000,  0.00000,1,   0.00,   1,1.0000,,,,,,,
    94,     83,'1 ',    0.78000E-03,    0.15020E-01,     1.1381    ,    0.00,    0.00, 3020.00,  0.00000,  0.00000,  0.00000,  0.00000,1,   0.00,   1,1.0000,,,,,,,
    82,     95,'1 ',    0.66000E-03,    0.12660E-01,    0.95976    ,    0.00,    0.00, 3020.00,  0.00000,  0.00000,  0.00000,  0.00000,1,   0.00,   1,1.0000,,,,,,,
    95,     96,'1 ',     0.0000    ,   -0.12630E-01,     0.0000    ,    0.00,    0.00, 2000.00,  0.00000,  0.00000,  0.00000,  0.00000,1,   0.00,   1,1.0000,,,,,,,
    96,     97,'1 ',    0.74000E-03,    0.14280E-01,     1.0822    ,    0.00,    0.00, 3020.00,  0.00000,  0.00000,  0.00000,  0.00000,1,   0.00,   1,1.0000,,,,,,,
    97,     98,'1 ',     0.0000    ,   -0.12630E-01,     0.0000    ,    0.00,    0.00, 2000.00,  0.00000,  0.00000,  0.00000,  0.00000,1,   0.00,   1,1.0000,,,,,,,
    98,     83,'1 ',    0.74000E-03,    0.14130E-01,     1.0663    ,    0.00,    0.00, 3020.00,  0.00000,  0.00000,  0.00000,  0.00000,1,   0.00,   1,1.0000,,,,,,,
    81,     99,'1 ',    0.26400E-02,    0.53560E-01,     5.2907    ,    0.00,    0.00, 3600.00,  0.00000,  0.00000,  0.00000,  0.00000,1,   0.00,   1,1.0000,,,,,,,
    99,     84,'1 ',     0.0000    ,   -0.26670E-01,     0.0000    ,    0.00,    0.00, 1732.00,  0.00000,  0.00000,  0.00000,  0.00000,1,   0.00,   1,1.0000,,,,,,,
   111,    120,'1 ',     0.0000    ,   -0.10000E-01,     0.0000    ,    0.00,    0.00, 2667.00,  0.00000,  0.00000,  0.00000,  0.00000,1,   0.00,   1,1.0000,,,,,,,
   120,    121,'1 ',    0.76000E-03,    0.19520E-01,     1.8245    ,    0.00,    0.00, 2894.00,  0.00000,  0.00000,  0.00000,  0.00000,1,   0.00,   1,1.0000,,,,,,,
   121,    122,'1 ',     0.0000    ,   -0.10000E-01,     0.0000    ,    0.00,    0.00, 2667.00,  0.00000,  0.00000,  0.00000,  0.00000,1,   0.00,   1,1.0000,,,,,,,
   122,    123,'1 ',    0.82000E-03,    0.21190E-01,     1.9842    ,    0.00,    0.00, 2894.00,  0.00000,  0.00000,  0.00000,  0.00000,1,   0.00,   1,1.0000,,,,,,,
   123,    119,'1 ',     0.0000    ,   -0.10000E-01,     0.0000    ,    0.00,    0.00, 2667.00,  0.00000,  0.00000,  0.00000,  0.00000,1,   0.00,   1,1.0000,,,,,,,
   107,    104,'1 ',    0.83000E-03,    0.19850E-01,     0.0000    ,    0.00,    0.00, 2450.00,  0.00000,  0.00000,  0.00000,  0.00000,1,   0.00,   1,1.0000,,,,,,,
   107,    108,'1 ',    0.15300E-02,    0.14700E-01,     0.0000    ,    0.00,    0.00, 1560.00,  0.00000,  0.00000,  0.00000,  0.00000,1,   0.00,   1,1.0000,,,,,,,
   110,    107,'1 ',    0.53000E-03,    0.12970E-01,     0.0000    ,    0.00,    0.00, 2450.00,  0.00000,  0.00000,  0.00000,  0.00000,1,   0.00,   1,1.0000,,,,,,,
   114,    124,'1 ',    0.20000E-04,   -0.99800E-02,     0.0000    ,    0.00,    0.00, 1800.00,  0.00000,  0.00000,  0.00000,  0.00000,1,   0.00,   1,1.0000,,,,,,,
   124,    125,'1 ',    0.14000E-02,    0.23380E-01,     1.4750    ,    0.00,    0.00, 2396.00,  0.00000,  0.00000,  0.00000,  0.00000,1,   0.00,   1,1.0000,,,,,,,
   125,    115,'1 ',    0.10000E-04,   -0.66600E-02,     0.0000    ,    0.00,    0.00, 1800.00,  0.00000,  0.00000,  0.00000,  0.00000,1,   0.00,   1,1.0000,,,,,,,
   114,    126,'1 ',    0.20000E-04,   -0.99800E-02,     0.0000    ,    0.00,    0.00, 1800.00,  0.00000,  0.00000,  0.00000,  0.00000,1,   0.00,   1,1.0000,,,,,,,
   126,    127,'1 ',    0.14000E-02,    0.23380E-01,     1.4750    ,    0.00,    0.00, 2396.00,  0.00000,  0.00000,  0.00000,  0.00000,1,   0.00,   1,1.0000,,,,,,,
   127,    115,'1 ',    0.10000E-04,   -0.66600E-02,     0.0000    ,    0.00,    0.00, 1800.00,  0.00000,  0.00000,  0.00000,  0.00000,1,   0.00,   1,1.0000,,,,,,,
   115,    128,'1 ',    0.10000E-04,   -0.11200E-01,     0.0000    ,    0.00,    0.00, 2667.00,  0.00000,  0.00000,  0.00000,  0.00000,1,   0.00,   1,1.0000,,,,,,,
   128,    129,'1 ',    0.15400E-02,    0.34090E-01,     2.3114    ,    0.00,    0.00, 2450.00,  0.00000,  0.00000,  0.00000,  0.00000,1,   0.00,   1,1.0000,,,,,,,
   129,    119,'1 ',    0.10000E-04,   -0.11200E-01,     0.0000    ,    0.00,    0.00, 2667.00,  0.00000,  0.00000,  0.00000,  0.00000,1,   0.00,   1,1.0000,,,,,,,
   115,    130,'1 ',    0.10000E-04,   -0.72000E-02,     0.0000    ,    0.00,    0.00, 2667.00,  0.00000,  0.00000,  0.00000,  0.00000,1,   0.00,   1,1.0000,,,,,,,
   130,    131,'1 ',    0.95000E-03,    0.21020E-01,     1.4252    ,    0.00,    0.00, 2450.00,  0.00000,  0.00000,  0.00000,  0.00000,1,   0.00,   1,1.0000,,,,,,,
   131,    119,'1 ',    0.10000E-04,   -0.36000E-02,     0.0000    ,    0.00,    0.00, 2667.00,  0.00000,  0.00000,  0.00000,  0.00000,1,   0.00,   1,1.0000,,,,,,,
   101,    113,'1 ',    0.11130E-01,    0.66780E-01,    0.72860E-01,    0.00,    0.00,  752.00,  0.00000,  0.00000,  0.00000,  0.00000,1,   0.00,   1,1.0000,,,,,,,
   101,    113,'2 ',    0.10500E-01,    0.65400E-01,    0.68600E-01,    0.00,    0.00,  602.00,  0.00000,  0.00000,  0.00000,  0.00000,1,   0.00,   1,1.0000,,,,,,,
   101,    113,'3 ',    0.11050E-01,    0.66420E-01,    0.71600E-01,    0.00,    0.00,  752.00,  0.00000,  0.00000,  0.00000,  0.00000,1,   0.00,   1,1.0000,,,,,,,
   101,    117,'1 ',    0.39030E-01,    0.27403    ,    0.31072    ,    0.00,    0.00,  747.00,  0.00000,  0.00000,  0.00000,  0.00000,1,   0.00,   1,1.0000,,,,,,,
   101,    100,'1 ',    0.24820E-01,    0.16938    ,    0.20232    ,    0.00,    0.00,  838.00,  0.00000,  0.00000,  0.00000,  0.00000,1,   0.00,   1,1.0000,,,,,,,
   100,    117,'1 ',    0.14800E-01,    0.10101    ,    0.12066    ,    0.00,    0.00,  838.00,  0.00000,  0.00000,  0.00000,  0.00000,1,   0.00,   1,1.0000,,,,,,,
   101,    105,'1 ',    0.13820E-01,    0.92680E-01,    0.11060    ,    0.00,    0.00,  747.00,  0.00000,  0.00000,  0.00000,  0.00000,1,   0.00,   1,1.0000,,,,,,,
   105,    117,'1 ',    0.30580E-01,    0.20460    ,    0.24472    ,    0.00,    0.00,  747.00,  0.00000,  0.00000,  0.00000,  0.00000,1,   0.00,   1,1.0000,,,,,,,
   101,    106,'1 ',    0.16680E-01,    0.11381    ,    0.13608    ,    0.00,    0.00,  838.00,  0.00000,  0.00000,  0.00000,  0.00000,1,   0.00,   1,1.0000,,,,,,,
   106,    117,'1 ',    0.22350E-01,    0.16106    ,    0.18342    ,    0.00,    0.00,  838.00,  0.00000,  0.00000,  0.00000,  0.00000,1,   0.00,   1,1.0000,,,,,,,
   119,    132,'1 ',    0.10000E-04,   -0.75500E-02,     0.0000    ,    0.00,    0.00,    0.00,  0.00000,  0.00000,  0.00000,  0.00000,1,   0.00,   1,1.0000,,,,,,,
   132,    133,'1 ',    0.16500E-02,    0.57190E-01,     2.4774    ,    0.00,    0.00, 2450.00,  0.00000,  0.00000,  0.00000,  0.00000,1,   0.00,   1,1.0000,,,,,,,
   133,    108,'1 ',    0.20000E-04,   -0.13310E-01,     0.0000    ,    0.00,    0.00, 1800.00,  0.00000,  0.00000,  0.00000,  0.00000,1,   0.00,   1,1.0000,,,,,,,
   119,    134,'1 ',    0.10000E-04,   -0.10980E-01,     0.0000    ,    0.00,    0.00, 2450.00,  0.00000,  0.00000,  0.00000,  0.00000,1,   0.00,   1,1.0000,,,,,,,
   134,    104,'1 ',    0.93000E-03,    0.36440E-01,     1.3895    ,    0.00,    0.00, 2450.00,  0.00000,  0.00000,  0.00000,  0.00000,1,   0.00,   1,1.0000,,,,,,,
   104,    135,'1 ',    0.72000E-03,    0.16000E-01,     1.0879    ,    0.00,    0.00, 2450.00,  0.00000,  0.00000,  0.00000,  0.00000,1,   0.00,   1,1.0000,,,,,,,
   135,    108,'1 ',    0.20000E-04,   -0.99800E-02,     0.0000    ,    0.00,    0.00, 2450.00,  0.00000,  0.00000,  0.00000,  0.00000,1,   0.00,   1,1.0000,,,,,,,
   104,    102,'1 ',    0.79000E-03,    0.19370E-01,     1.3285    ,    0.00,    0.00,    0.00,  0.00000,  0.00000,  0.00000,  0.00000,1,   0.00,   1,1.0000,,,,,,,
   102,    108,'1 ',    0.87000E-03,    0.20870E-01,     1.4571    ,    0.00,    0.00,    0.00,  0.00000,  0.00000,  0.00000,  0.00000,1,   0.00,   1,1.0000,,,,,,,
   102,    108,'2 ',    0.87000E-03,    0.20870E-01,     1.4571    ,    0.00,    0.00,    0.00,  0.00000,  0.00000,  0.00000,  0.00000,1,   0.00,   1,1.0000,,,,,,,
   142,    153,'1 ',    0.44000E-03,    0.11250E-01,    0.82920    ,    0.00,    0.00, 3600.00,  0.00000,  0.00000,  0.00000,  0.00000,1,   0.00,   1,1.0000,,,,,,,
   142,    153,'2 ',    0.44000E-03,    0.11250E-01,    0.82920    ,    0.00,    0.00, 3600.00,  0.00000,  0.00000,  0.00000,  0.00000,1,   0.00,   1,1.0000,,,,,,,
   142,    147,'1 ',    0.19000E-02,    0.31000E-01,     4.1402    ,    0.00,    0.00, 3600.00,  0.00000,  0.00000,  0.00000,  0.00000,1,   0.00,   1,1.0000,,,,,,,
   139,    142,'1 ',    0.19300E-02,    0.27790E-01,     4.6712    ,    0.00,    0.00, 3600.00,  0.00000,  0.00000,  0.00000,  0.00000,1,   0.00,   1,1.0000,,,,,,,
   147,    139,'1 ',    0.56000E-03,    0.14150E-01,     1.0429    ,    0.00,    0.00, 3600.00,  0.00000,  0.00000,  0.00000,  0.00000,1,   0.00,   1,1.0000,,,,,,,
   136,    152,'1 ',    0.42000E-03,    0.90500E-02,    0.66794    ,    0.00,    0.00, 3600.00,  0.00000,  0.00000,  0.00000,  0.00000,1,   0.00,   1,1.0000,,,,,,,
   142,    151,'1 ',    0.60000E-03,    0.12800E-01,    0.94620    ,    0.00,    0.00, 3600.00,  0.00000,  0.00000,  0.00000,  0.00000,1,   0.00,   1,1.0000,,,,,,,
   145,    151,'1 ',    0.21000E-03,    0.45700E-02,    0.32336    ,    0.00,    0.00, 3600.00,  0.00000,  0.00000,  0.00000,  0.00000,1,   0.00,   1,1.0000,,,,,,,
   151,    152,'1 ',    0.40000E-03,    0.93000E-02,    0.68560    ,    0.00,    0.00, 3600.00,  0.00000,  0.00000,  0.00000,  0.00000,1,   0.00,   1,1.0000,,,,,,,
   142,    145,'1 ',    0.28000E-03,    0.75300E-02,    0.51736    ,    0.00,    0.00, 3600.00,  0.00000,  0.00000,  0.00000,  0.00000,1,   0.00,   1,1.0000,,,,,,,
   142,    145,'2 ',    0.35000E-03,    0.75000E-02,    0.55360    ,    0.00,    0.00, 3600.00,  0.00000,  0.00000,  0.00000,  0.00000,1,   0.00,   1,1.0000,,,,,,,
   150,    154,'1 ',    0.28500E-02,    0.36490E-01,    0.12656    ,    0.00,    0.00, 2320.00,  0.00000,  0.00000,  0.00000,  0.00000,1,   0.00,   1,1.0000,,,,,,,
   150,    154,'2 ',    0.13800E-02,    0.33990E-01,    0.11252    ,    0.00,    0.00, 2320.00,  0.00000,  0.00000,  0.00000,  0.00000,1,   0.00,   1,1.0000,,,,,,,
   137,    143,'1 ',    0.19000E-02,    0.25800E-01,    0.98400E-01,    0.00,    0.00, 2320.00,  0.00000,  0.00000,  0.00000,  0.00000,1,   0.00,   1,1.0000,,,,,,,
   137,    150,'1 ',    0.84500E-02,    0.70340E-01,    0.15954    ,    0.00,    0.00, 1160.00,  0.00000,  0.00000,  0.00000,  0.00000,1,   0.00,   1,1.0000,,,,,,,
   141,    143,'1 ',    0.11000E-02,    0.12700E-01,    0.48000E-01,    0.00,    0.00, 2320.00,  0.00000,  0.00000,  0.00000,  0.00000,1,   0.00,   1,1.0000,,,,,,,
   154,    143,'1 ',    0.32000E-02,    0.39500E-01,    0.14400    ,    0.00,    0.00, 2320.00,  0.00000,  0.00000,  0.00000,  0.00000,1,   0.00,   1,1.0000,,,,,,,
   146,    143,'1 ',    0.13800E-02,    0.53990E-01,    0.15252    ,    0.00,    0.00, 2320.00,  0.00000,  0.00000,  0.00000,  0.00000,1,   0.00,   1,1.0000,,,,,,,
   156,    167,'1 ',    0.16000E-02,    0.22600E-01,    0.38100    ,    0.00,    0.00,    0.00,  0.00000,  0.00000,  0.00000,  0.00000,1,   0.00,   1,1.0000,,,,,,,
   155,    167,'1 ',    0.80000E-03,    0.10600E-01,    0.20390    ,    0.00,    0.00,    0.00,  0.00000,  0.00000,  0.00000,  0.00000,1,   0.00,   1,1.0000,,,,,,,
   156,    155,'1 ',    0.24000E-02,    0.33200E-01,    0.58490    ,    0.00,    0.00,    0.00,  0.00000,  0.00000,  0.00000,  0.00000,1,   0.00,   1,1.0000,,,,,,,
   155,    160,'1 ',    0.17000E-02,    0.22500E-01,    0.39920    ,    0.00,    0.00,    0.00,  0.00000,  0.00000,  0.00000,  0.00000,1,   0.00,   1,1.0000,,,,,,,
   155,    160,'2 ',    0.21000E-02,    0.23800E-01,    0.38450    ,    0.00,    0.00,    0.00,  0.00000,  0.00000,  0.00000,  0.00000,1,   0.00,   1,1.0000,,,,,,,
   158,    164,'1 ',    0.96000E-02,    0.87800E-01,     1.4265    ,    0.00,    0.00,    0.00,  0.00000,  0.00000,  0.00000,  0.00000,1,   0.00,   1,1.0000,,,,,,,
   155,    158,'1 ',    0.52000E-02,    0.60200E-01,     1.0100    ,    0.00,    0.00,    0.00,  0.00000,  0.00000,  0.00000,  0.00000,1,   0.00,   1,1.0000,,,,,,,
   155,    158,'2 ',    0.49000E-02,    0.53700E-01,    0.88430    ,    0.00,    0.00,    0.00,  0.00000,  0.00000,  0.00000,  0.00000,1,   0.00,   1,1.0000,,,,,,,
   155,    165,'1 ',    0.12000E-02,    0.17200E-01,    0.29870    ,    0.00,    0.00,    0.00,  0.00000,  0.00000,  0.00000,  0.00000,1,   0.00,   1,1.0000,,,,,,,
   158,    166,'1 ',    0.34000E-02,    0.37400E-01,    0.62080    ,    0.00,    0.00,    0.00,  0.00000,  0.00000,  0.00000,  0.00000,1,   0.00,   1,1.0000,,,,,,,
   158,    166,'2 ',    0.34000E-02,    0.37200E-01,    0.61820    ,    0.00,    0.00,    0.00,  0.00000,  0.00000,  0.00000,  0.00000,1,   0.00,   1,1.0000,,,,,,,
   160,    166,'1 ',    0.38000E-02,    0.34000E-01,    0.58240    ,    0.00,    0.00,    0.00,  0.00000,  0.00000,  0.00000,  0.00000,1,   0.00,   1,1.0000,,,,,,,
   160,    166,'2 ',    0.32000E-02,    0.34900E-01,    0.57220    ,    0.00,    0.00,    0.00,  0.00000,  0.00000,  0.00000,  0.00000,1,   0.00,   1,1.0000,,,,,,,
...